467
F V+ V0 I0 I E
F 0 0 0 
V0 0 0 2 
F 0 0 4 
F 0 0 6 
F 0 0 8 
F 0 0 10 
F 0 2 0 
V+ 0 2 2 
F 0 2 4 
V0 0 2 6 
F 0 2 8 
F 0 2 10 
I 0 3 5 
F 0 4 0 
V+ 0 4 2 
V0 0 4 4 
F 0 4 6 
F 0 4 8 
V0 0 4 10 
F 0 6 0 
F 0 6 2 
F 0 6 4 
F 0 6 6 
F 0 6 8 
V0 0 6 10 
F 0 8 0 
F 0 8 2 
F 0 8 4 
F 0 8 6 
V0 0 8 8 
F 0 8 10 
V+ 0 10 0 
F 0 10 2 
F 0 10 4 
V0 0 10 6 
V0 0 10 8 
F 0 10 10 
V0 1 5 7 
I 1 5 9 
I 1 9 10 
F 2 0 0 
F 2 0 2 
V0 2 0 4 
V0 2 0 6 
F 2 0 8 
F 2 0 10 
F 2 2 0 
V0 2 2 2 
V0 2 2 4 
F 2 2 6 
F 2 2 8 
F 2 2 10 
F 2 4 0 
F 2 4 2 
F 2 4 4 
F 2 4 6 
F 2 4 8 
F 2 4 10 
F 2 6 0 
F 2 6 2 
V+ 2 6 4 
V0 2 6 6 
V0 2 6 8 
F 2 6 10 
F 2 8 0 
F 2 8 2 
F 2 8 4 
V0 2 8 6 
V0 2 8 8 
F 2 8 10 
V+ 2 10 0 
F 2 10 2 
F 2 10 4 
F 2 10 6 
F 2 10 8 
V0 2 10 10 
I 3 1 2 
I 3 1 9 
I 3 9 6 
I 3 9 7 
F 4 0 0 
V0 4 0 2 
V+ 4 0 4 
F 4 0 6 
F 4 0 8 
V+ 4 0 10 
F 4 2 0 
F 4 2 2 
F 4 2 4 
F 4 2 6 
F 4 2 8 
F 4 2 10 
F 4 4 0 
V0 4 4 2 
F 4 4 4 
V+ 4 4 6 
F 4 4 8 
F 4 4 10 
F 4 6 0 
F 4 6 2 
F 4 6 4 
V0 4 6 6 
F 4 6 8 
F 4 6 10 
F 4 8 0 
F 4 8 2 
F 4 8 4 
F 4 8 6 
F 4 8 8 
F 4 8 10 
F 4 10 0 
F 4 10 2 
F 4 10 4 
F 4 10 6 
F 4 10 8 
V+ 4 10 10 
V0 5 5 5 
I 5 5 6 
V0 5 5 7 
I 5 5 8 
I 5 7 1 
I 5 7 6 
V0 5 7 7 
I 5 9 5 
F 6 0 0 
V+ 6 0 2 
V0 6 0 4 
F 6 0 6 
F 6 0 8 
F 6 0 10 
F 6 2 0 
F 6 2 2 
F 6 2 4 
V0 6 2 6 
F 6 2 8 
F 6 2 10 
F 6 4 0 
F 6 4 2 
V0 6 4 4 
F 6 4 6 
F 6 4 8 
V0 6 4 10 
V+ 6 6 0 
F 6 6 2 
V0 6 6 4 
V0 6 6 6 
F 6 6 8 
V0 6 6 10 
F 6 8 0 
F 6 8 2 
F 6 8 4 
V+ 6 8 6 
F 6 8 8 
F 6 8 10 
F 6 10 0 
F 6 10 2 
F 6 10 4 
V0 6 10 6 
F 6 10 8 
F 6 10 10 
I 7 3 1 
V0 7 5 7 
I 7 7 5 
V0 7 7 7 
I 7 7 9 
V+ 8 0 0 
F 8 0 2 
F 8 0 4 
F 8 0 6 
F 8 0 8 
F 8 0 10 
F 8 2 0 
F 8 2 2 
F 8 2 4 
F 8 2 6 
F 8 2 8 
F 8 2 10 
V+ 8 4 0 
F 8 4 2 
F 8 4 4 
V+ 8 4 6 
V0 8 4 8 
F 8 4 10 
I 8 5 1 
F 8 6 0 
V0 8 6 2 
F 8 6 4 
F 8 6 6 
F 8 6 8 
F 8 6 10 
V0 8 8 0 
V+ 8 8 2 
F 8 8 4 
F 8 8 6 
F 8 8 8 
F 8 8 10 
F 8 10 0 
F 8 10 2 
F 8 10 4 
F 8 10 6 
F 8 10 8 
F 8 10 10 
I 9 1 9 
I 9 7 5 
I 9 7 6 
I 9 9 5 
F 10 0 0 
F 10 0 2 
V+ 10 0 4 
F 10 0 6 
F 10 0 8 
F 10 0 10 
F 10 2 0 
V0 10 2 2 
F 10 2 4 
F 10 2 6 
F 10 2 8 
F 10 2 10 
F 10 4 0 
F 10 4 2 
F 10 4 4 
F 10 4 6 
F 10 4 8 
V0 10 4 10 
F 10 6 0 
F 10 6 2 
F 10 6 4 
F 10 6 6 
F 10 6 8 
F 10 6 10 
F 10 8 0 
F 10 8 2 
V+ 10 8 4 
F 10 8 6 
F 10 8 8 
F 10 8 10 
F 10 10 0 
F 10 10 2 
F 10 10 4 
V+ 10 10 6 
F 10 10 8 
F 10 10 10 
E 0 0 -1 
E 0 0 11 
E 0 1 -1 
E 0 1 11 
E 0 2 -1 
E 0 2 11 
E 0 3 -1 
E 0 3 11 
E 0 4 -1 
E 0 4 11 
E 0 5 -1 
E 0 5 11 
E 0 6 -1 
E 0 6 11 
E 0 7 -1 
E 0 7 11 
E 0 8 -1 
E 0 8 11 
E 0 9 -1 
E 0 9 11 
E 0 10 -1 
E 0 10 11 
E 1 0 -1 
E 1 0 11 
E 1 1 -1 
E 1 1 11 
E 1 2 -1 
E 1 2 11 
E 1 3 -1 
E 1 3 11 
E 1 4 -1 
E 1 4 11 
E 1 5 -1 
E 1 5 11 
E 1 6 -1 
E 1 6 11 
E 1 7 -1 
E 1 7 11 
E 1 8 -1 
E 1 8 11 
E 1 9 -1 
E 1 9 11 
E 1 10 -1 
E 1 10 11 
E 2 0 -1 
E 2 0 11 
E 2 1 -1 
E 2 1 11 
E 2 2 -1 
E 2 2 11 
E 2 3 -1 
E 2 3 11 
E 2 4 -1 
E 2 4 11 
E 2 5 -1 
E 2 5 11 
E 2 6 -1 
E 2 6 11 
E 2 7 -1 
E 2 7 11 
E 2 8 -1 
E 2 8 11 
E 2 9 -1 
E 2 9 11 
E 2 10 -1 
E 2 10 11 
E 3 0 -1 
E 3 0 11 
E 3 1 -1 
E 3 1 11 
E 3 2 -1 
E 3 2 11 
E 3 3 -1 
E 3 3 11 
E 3 4 -1 
E 3 4 11 
E 3 5 -1 
E 3 5 11 
E 3 6 -1 
E 3 6 11 
E 3 7 -1 
E 3 7 11 
E 3 8 -1 
E 3 8 11 
E 3 9 -1 
E 3 9 11 
E 3 10 -1 
E 3 10 11 
E 4 0 -1 
E 4 0 11 
E 4 1 -1 
E 4 1 11 
E 4 2 -1 
E 4 2 11 
E 4 3 -1 
E 4 3 11 
E 4 4 -1 
E 4 4 11 
E 4 5 -1 
E 4 5 11 
E 4 6 -1 
E 4 6 11 
E 4 7 -1 
E 4 7 11 
E 4 8 -1 
E 4 8 11 
E 4 9 -1 
E 4 9 11 
E 4 10 -1 
E 4 10 11 
E 5 0 -1 
E 5 0 11 
E 5 1 -1 
E 5 1 11 
E 5 2 -1 
E 5 2 11 
E 5 3 -1 
E 5 3 11 
E 5 4 -1 
E 5 4 11 
E 5 5 -1 
E 5 5 11 
E 5 6 -1 
E 5 6 11 
E 5 7 -1 
E 5 7 11 
E 5 8 -1 
E 5 8 11 
E 5 9 -1 
E 5 9 11 
E 5 10 -1 
E 5 10 11 
E 6 0 -1 
E 6 0 11 
E 6 1 -1 
E 6 1 11 
E 6 2 -1 
E 6 2 11 
E 6 3 -1 
E 6 3 11 
E 6 4 -1 
E 6 4 11 
E 6 5 -1 
E 6 5 11 
E 6 6 -1 
E 6 6 11 
E 6 7 -1 
E 6 7 11 
E 6 8 -1 
E 6 8 11 
E 6 9 -1 
E 6 9 11 
E 6 10 -1 
E 6 10 11 
E 7 0 -1 
E 7 0 11 
E 7 1 -1 
E 7 1 11 
E 7 2 -1 
E 7 2 11 
E 7 3 -1 
E 7 3 11 
E 7 4 -1 
E 7 4 11 
E 7 5 -1 
E 7 5 11 
E 7 6 -1 
E 7 6 11 
E 7 7 -1 
E 7 7 11 
E 7 8 -1 
E 7 8 11 
E 7 9 -1 
E 7 9 11 
E 7 10 -1 
E 7 10 11 
E 8 0 -1 
E 8 0 11 
E 8 1 -1 
E 8 1 11 
E 8 2 -1 
E 8 2 11 
E 8 3 -1 
E 8 3 11 
E 8 4 -1 
E 8 4 11 
E 8 5 -1 
E 8 5 11 
E 8 6 -1 
E 8 6 11 
E 8 7 -1 
E 8 7 11 
E 8 8 -1 
E 8 8 11 
E 8 9 -1 
E 8 9 11 
E 8 10 -1 
E 8 10 11 
E 9 0 -1 
E 9 0 11 
E 9 1 -1 
E 9 1 11 
E 9 2 -1 
E 9 2 11 
E 9 3 -1 
E 9 3 11 
E 9 4 -1 
E 9 4 11 
E 9 5 -1 
E 9 5 11 
E 9 6 -1 
E 9 6 11 
E 9 7 -1 
E 9 7 11 
E 9 8 -1 
E 9 8 11 
E 9 9 -1 
E 9 9 11 
E 9 10 -1 
E 9 10 11 
E 10 0 -1 
E 10 0 11 
E 10 1 -1 
E 10 1 11 
E 10 2 -1 
E 10 2 11 
E 10 3 -1 
E 10 3 11 
E 10 4 -1 
E 10 4 11 
E 10 5 -1 
E 10 5 11 
E 10 6 -1 
E 10 6 11 
E 10 7 -1 
E 10 7 11 
E 10 8 -1 
E 10 8 11 
E 10 9 -1 
E 10 9 11 
E 10 10 -1 
E 10 10 11 
